
     RDKit          3D

  9  9  0  0  0  0  0  0  0  0999 V2000
    2.5323   -0.2579   -0.7956 C   0  0  0  0  0  0  0  0  0  0  0  0
    1.5196    0.7121   -0.5543 O   0  0  0  0  0  0  0  0  0  0  0  0
    0.3083    0.2370   -0.1207 C   0  0  0  0  0  0  0  0  0  0  0  0
   -0.0213   -1.0995    0.1044 C   0  0  0  0  0  0  0  0  0  0  0  0
   -1.3051   -1.4379    0.5494 C   0  0  0  0  0  0  0  0  0  0  0  0
   -2.2623   -0.4458    0.7708 C   0  0  0  0  0  0  0  0  0  0  0  0
   -1.9413    0.8910    0.5484 C   0  0  0  0  0  0  0  0  0  0  0  0
   -0.6649    1.2179    0.1069 C   0  0  0  0  0  0  0  0  0  0  0  0
   -0.3729    2.5387   -0.1047 O   0  0  0  0  0  0  0  0  0  0  0  0
  1  2  1  0
  2  3  1  0
  3  4  2  0
  4  5  1  0
  5  6  2  0
  6  7  1  0
  7  8  2  0
  8  9  1  0
  8  3  1  0
M  END
$$$$
