
     RDKit          3D

 16 16  0  0  0  0  0  0  0  0999 V2000
    4.8932   -1.3039   -0.6104 C   0  0  0  0  0  0  0  0  0  0  0  0
    3.4754   -0.8429   -0.4654 C   0  0  0  0  0  0  0  0  0  0  0  0
    2.6980   -1.2511    0.6144 C   0  0  0  0  0  0  0  0  0  0  0  0
    1.3600   -0.8404    0.7293 C   0  0  0  0  0  0  0  0  0  0  0  0
    0.7284   -0.0278   -0.2303 C   0  0  0  0  0  0  0  0  0  0  0  0
    1.5444    0.3670   -1.3060 C   0  0  0  0  0  0  0  0  0  0  0  0
    2.8835   -0.0355   -1.4320 C   0  0  0  0  0  0  0  0  0  0  0  0
   -0.6009    0.3941   -0.0987 N   0  0  0  0  0  0  0  0  0  0  0  0
   -1.4815   -0.2285    0.9176 C   0  0  0  0  0  0  0  0  0  0  0  0
   -1.9468   -1.6505    0.5186 C   0  0  0  0  0  0  0  0  0  0  0  0
   -2.4338   -2.4269    1.7367 C   0  0  0  0  0  0  0  0  0  0  0  0
   -3.0208   -1.5939   -0.4302 O   0  0  0  0  0  0  0  0  0  0  0  0
   -1.3137    1.0498   -1.2246 C   0  0  0  0  0  0  0  0  0  0  0  0
   -1.3212    2.5916   -1.0926 C   0  0  0  0  0  0  0  0  0  0  0  0
   -2.1639    3.0898    0.0749 C   0  0  0  0  0  0  0  0  0  0  0  0
   -0.0017    3.1138   -0.9402 O   0  0  0  0  0  0  0  0  0  0  0  0
  1  2  1  0
  2  3  2  0
  3  4  1  0
  4  5  2  0
  5  6  1  0
  6  7  2  0
  5  8  1  0
  8  9  1  0
  9 10  1  0
 10 11  1  0
 10 12  1  0
  8 13  1  0
 13 14  1  0
 14 15  1  0
 14 16  1  0
  7  2  1  0
M  END
$$$$
